<?xml version="1.0" encoding="UTF-8"?>

<configuration xmlns:xsi="http://www.w3.org/2001/XMLSchema-instance" xsi:noNamespaceSchemaLocation="http://sumo.dlr.de/xsd/sumoConfiguration.xsd">

    <input>
        <net-file value="map3.net.xml"/>
        <route-files value="map3.rou.xml"/>  
    </input>

    <time>
        <begin value="0"/>
        <end value="1000"/>
    <step-length value="0.1"/>
    </time>


</configuration>