<?xml version="1.0" encoding="UTF-8"?>

<!-- generated on 2023-09-28 13:32:10.083847 by randomTrips.py v1_18_0+0000-03ecfdea036
<configuration>
    <net-file value="map3.net.xml"/>
    <output-trip-file value="map3.trips.xml"/>
    <end value="1000.0"/>
</configuration>
-->

<routes xmlns:xsi="http://www.w3.org/2001/XMLSchema-instance" xsi:noNamespaceSchemaLocation="http://sumo.dlr.de/xsd/routes_file.xsd">
    <trip id="0" depart="0.00" from="129942812#0" to="-129850948#4"/>
    <trip id="1" depart="1.00" from="-399342558#1" to="-366976399"/>
    <trip id="2" depart="2.00" from="367038307" to="338160237#2"/>
    <trip id="3" depart="3.00" from="657617348" to="-129929354#1"/>
    <trip id="4" depart="4.00" from="-662451943#2" to="-129854943#1"/>
    <trip id="5" depart="5.00" from="-366976394#1" to="129928440"/>
    <trip id="6" depart="6.00" from="-129851257#4" to="-326225765"/>
    <trip id="7" depart="7.00" from="129942850#3" to="129929784#3"/>
    <trip id="8" depart="8.00" from="-366976400" to="129942655#0"/>
    <trip id="9" depart="9.00" from="399345570#0" to="-129760434#1"/>
    <trip id="10" depart="10.00" from="399342580#2" to="366598786#3"/>
    <trip id="11" depart="11.00" from="-466554479" to="-129942766#0"/>
    <trip id="12" depart="12.00" from="660931710#2" to="-656566063#6"/>
    <trip id="13" depart="13.00" from="-129929783#1" to="-129929784#0"/>
    <trip id="14" depart="14.00" from="404166558" to="129942730#1"/>
    <trip id="15" depart="15.00" from="399342580#6" to="384124923#0"/>
    <trip id="16" depart="16.00" from="129929320#9" to="662398324#2"/>
    <trip id="17" depart="17.00" from="-658616115#0" to="129932501#1"/>
    <trip id="18" depart="18.00" from="399756222#1" to="129942801#2"/>
    <trip id="19" depart="19.00" from="437895857#2" to="129942535#5"/>
    <trip id="20" depart="20.00" from="351033080#10" to="-129857199#2"/>
    <trip id="21" depart="21.00" from="-384054152#2" to="-399568761"/>
    <trip id="22" depart="22.00" from="-129929334" to="-384124920"/>
    <trip id="23" depart="23.00" from="-129932511#2" to="-399342577#0"/>
    <trip id="24" depart="24.00" from="129942798#4" to="-658555474#4"/>
    <trip id="25" depart="25.00" from="-658014363#2" to="-338160239#4"/>
    <trip id="26" depart="26.00" from="-398589529#1" to="659343073#2"/>
    <trip id="27" depart="27.00" from="129942844#0" to="129942775"/>
    <trip id="28" depart="28.00" from="-161636673#1" to="384124920"/>
    <trip id="29" depart="29.00" from="-129942836#0" to="-658884198#4"/>
    <trip id="30" depart="30.00" from="664422878#1" to="250704314"/>
    <trip id="31" depart="31.00" from="129929368#3" to="345977851#3"/>
    <trip id="32" depart="32.00" from="402267082" to="398431662#1"/>
    <trip id="33" depart="33.00" from="-384124916#2" to="-129854963#2"/>
    <trip id="34" depart="34.00" from="-400523895#1" to="-398837278#6"/>
    <trip id="35" depart="35.00" from="-351033079#0" to="659568995#3"/>
    <trip id="36" depart="36.00" from="656566067#2" to="-403551281"/>
    <trip id="37" depart="37.00" from="185209870#3" to="-660931713#0"/>
    <trip id="38" depart="38.00" from="658586095" to="129850948#2"/>
    <trip id="39" depart="39.00" from="-398431662#2" to="-386820246#3"/>
    <trip id="40" depart="40.00" from="129929785" to="-398431662#3"/>
    <trip id="41" depart="41.00" from="129942512#4" to="658014360#1"/>
    <trip id="42" depart="42.00" from="-659568996#1" to="-364838387#0"/>
    <trip id="43" depart="43.00" from="838067683#3" to="129928474"/>
    <trip id="44" depart="44.00" from="-129929369#0" to="-129857200#0"/>
    <trip id="45" depart="45.00" from="-129932542#2" to="129942842#0"/>
    <trip id="46" depart="46.00" from="398837278#4" to="-665910563#0"/>
    <trip id="47" depart="47.00" from="-129859474#0" to="-659182717#6"/>
    <trip id="48" depart="48.00" from="778945014#6" to="129929350#0"/>
    <trip id="49" depart="49.00" from="662231439#0" to="449252057"/>
    <trip id="50" depart="50.00" from="-129848460#0" to="367038298"/>
    <trip id="51" depart="51.00" from="326225120#1" to="129929362#1"/>
    <trip id="52" depart="52.00" from="-398589529#1" to="250704317#0"/>
    <trip id="53" depart="53.00" from="-129942510#1" to="129760369#4"/>
    <trip id="54" depart="54.00" from="129845049#3" to="660931713#2"/>
    <trip id="55" depart="55.00" from="656566063#7" to="-398431663#1"/>
    <trip id="56" depart="56.00" from="129857202#1" to="-185209867#0"/>
    <trip id="57" depart="57.00" from="658555474#2" to="656566059"/>
    <trip id="58" depart="58.00" from="-399756192#0" to="243602329"/>
    <trip id="59" depart="59.00" from="129942665#3" to="-129942746#1"/>
    <trip id="60" depart="60.00" from="386820242#2" to="129929367#1"/>
    <trip id="61" depart="61.00" from="387265396#2" to="129929352#1"/>
    <trip id="62" depart="62.00" from="-1201588312" to="-428098935#2"/>
    <trip id="63" depart="63.00" from="-129849267#1" to="659182717#2"/>
    <trip id="64" depart="64.00" from="656749816#2" to="400523870#1"/>
    <trip id="65" depart="65.00" from="-400043754#7" to="-129857822#1"/>
    <trip id="66" depart="66.00" from="656749815#6" to="660564766#0"/>
    <trip id="67" depart="67.00" from="-129929356#2" to="129857200#4"/>
    <trip id="68" depart="68.00" from="-129928480" to="386838796#1"/>
    <trip id="69" depart="69.00" from="386820258" to="-129942583#0"/>
    <trip id="70" depart="70.00" from="129850968#1" to="129932489#2"/>
    <trip id="71" depart="71.00" from="-398431662#3" to="656566063#4"/>
    <trip id="72" depart="72.00" from="-662451948#2" to="-341558626"/>
    <trip id="73" depart="73.00" from="129929336" to="384124923#1"/>
    <trip id="74" depart="74.00" from="-338160233#2" to="-400661855"/>
    <trip id="75" depart="75.00" from="778945014#2" to="266454228"/>
    <trip id="76" depart="76.00" from="-892236300" to="129928513#1"/>
    <trip id="77" depart="77.00" from="-129942535#7" to="-366976404"/>
    <trip id="78" depart="78.00" from="-444344574" to="129942640#0"/>
    <trip id="79" depart="79.00" from="-384124919#1" to="-364838389#1"/>
    <trip id="80" depart="80.00" from="-129928490" to="129942853#0"/>
    <trip id="81" depart="81.00" from="-384124916#2" to="658255407"/>
    <trip id="82" depart="82.00" from="436880743" to="-129928482#0"/>
    <trip id="83" depart="83.00" from="-384927818#1" to="338160225#1"/>
    <trip id="84" depart="84.00" from="-351033080#5" to="-129942601#1"/>
    <trip id="85" depart="85.00" from="659182726#1" to="129942517#5"/>
    <trip id="86" depart="86.00" from="129850946#5" to="399149599#2"/>
    <trip id="87" depart="87.00" from="399342581" to="-266482084#1"/>
    <trip id="88" depart="88.00" from="-129932489#3" to="129753217#1"/>
    <trip id="89" depart="89.00" from="-662451948#3" to="129854963#2"/>
    <trip id="90" depart="90.00" from="367011029#0" to="338160232#0"/>
    <trip id="91" depart="91.00" from="662637044" to="-129932487#1"/>
    <trip id="92" depart="92.00" from="-660771536" to="-656749816#0"/>
    <trip id="93" depart="93.00" from="437895857#2" to="-386820261#1"/>
    <trip id="94" depart="94.00" from="-326225120#2" to="129848466#0"/>
    <trip id="95" depart="95.00" from="-662451943#2" to="-399342577#2"/>
    <trip id="96" depart="96.00" from="-386820268#0" to="658884189#6"/>
    <trip id="97" depart="97.00" from="129753211#2" to="450509579"/>
    <trip id="98" depart="98.00" from="129929359#2" to="-129857203#3"/>
    <trip id="99" depart="99.00" from="931868497" to="403551278#1"/>
    <trip id="100" depart="100.00" from="662231428" to="658884193#2"/>
    <trip id="101" depart="101.00" from="404166577#2" to="-129942807#0"/>
    <trip id="102" depart="102.00" from="129857179#4" to="-345977851#2"/>
    <trip id="103" depart="103.00" from="-660570746#1" to="-129857823#0"/>
    <trip id="104" depart="104.00" from="-658616116#0" to="662685857#2"/>
    <trip id="105" depart="105.00" from="-398431663#0" to="399149599#0"/>
    <trip id="106" depart="106.00" from="129847015" to="-665910564#0"/>
    <trip id="107" depart="107.00" from="660931713#0" to="838047641"/>
    <trip id="108" depart="108.00" from="129929368#0" to="367038272#1"/>
    <trip id="109" depart="109.00" from="-129942790#1" to="-399756200#0"/>
    <trip id="110" depart="110.00" from="662231427" to="129942546#2"/>
    <trip id="111" depart="111.00" from="129929347#0" to="386820240#0"/>
    <trip id="112" depart="112.00" from="-129857821#1" to="129942592#1"/>
    <trip id="113" depart="113.00" from="129857204#2" to="429413863"/>
    <trip id="114" depart="114.00" from="-129942798#4" to="661615726#2"/>
    <trip id="115" depart="115.00" from="-129929338" to="-266454230"/>
    <trip id="116" depart="116.00" from="129942546#2" to="338160233#4"/>
    <trip id="117" depart="117.00" from="-384449667#1" to="-129942518#4"/>
    <trip id="118" depart="118.00" from="657617339#2" to="-386820246#1"/>
    <trip id="119" depart="119.00" from="129942546#0" to="129942807#0"/>
    <trip id="120" depart="120.00" from="-662398317#0" to="129942590"/>
    <trip id="121" depart="121.00" from="129928464#1" to="659326896#1"/>
    <trip id="122" depart="122.00" from="-338160239#3" to="367038261"/>
    <trip id="123" depart="123.00" from="-384927824#2" to="-660931713#0"/>
    <trip id="124" depart="124.00" from="266454245" to="-399756223#1"/>
    <trip id="125" depart="125.00" from="-402534194#0" to="386820256#0"/>
    <trip id="126" depart="126.00" from="-129928504#2" to="129850946#6"/>
    <trip id="127" depart="127.00" from="905747355#1" to="838067683#2"/>
    <trip id="128" depart="128.00" from="-129928512#0" to="-345977851#0"/>
    <trip id="129" depart="129.00" from="-398431663#0" to="659288430#1"/>
    <trip id="130" depart="130.00" from="656783547#4" to="656783551"/>
    <trip id="131" depart="131.00" from="-658014360#2" to="-129942781#2"/>
    <trip id="132" depart="132.00" from="400043754#6" to="366752612#0"/>
    <trip id="133" depart="133.00" from="129942690" to="664379234"/>
    <trip id="134" depart="134.00" from="185209869#0" to="-129845049#2"/>
    <trip id="135" depart="135.00" from="399568762#1" to="-399756222#1"/>
    <trip id="136" depart="136.00" from="266437815#0-AddedOnRampEdge" to="659361851#4"/>
    <trip id="137" depart="137.00" from="-129942672#0" to="-129942510#3"/>
    <trip id="138" depart="138.00" from="-129932533#2" to="129932508"/>
    <trip id="139" depart="139.00" from="-399149599#2" to="129942741#2"/>
    <trip id="140" depart="140.00" from="366598798" to="-338160231#0"/>
    <trip id="141" depart="141.00" from="129942796" to="-398589528#0"/>
    <trip id="142" depart="142.00" from="129857185#1" to="658255401"/>
    <trip id="143" depart="143.00" from="403551285" to="-129929363#1"/>
    <trip id="144" depart="144.00" from="-662451948#3" to="-399342569#1"/>
    <trip id="145" depart="145.00" from="-129760369#2" to="388157395"/>
    <trip id="146" depart="146.00" from="129942801#0" to="-398431662#0"/>
    <trip id="147" depart="147.00" from="384054152#4" to="129932500"/>
    <trip id="148" depart="148.00" from="-662637043" to="-129847015"/>
    <trip id="149" depart="149.00" from="-129928513#4" to="657617322#1"/>
    <trip id="150" depart="150.00" from="658021586" to="129929789#1"/>
    <trip id="151" depart="151.00" from="400043756" to="129942583#2"/>
    <trip id="152" depart="152.00" from="-129942746#1" to="-129942573"/>
    <trip id="153" depart="153.00" from="-400043755" to="658014363#2"/>
    <trip id="154" depart="154.00" from="399342550#0" to="448531856"/>
    <trip id="155" depart="155.00" from="658014352#0" to="-338161127"/>
    <trip id="156" depart="156.00" from="-386820266#1" to="-129932501#1"/>
    <trip id="157" depart="157.00" from="387695788#0" to="657617322#5"/>
    <trip id="158" depart="158.00" from="-660984256" to="129942812#1"/>
    <trip id="159" depart="159.00" from="-129942790#0" to="659182717#5"/>
    <trip id="160" depart="160.00" from="445535093" to="662451948#3"/>
    <trip id="161" depart="161.00" from="399345571#0" to="657070669"/>
    <trip id="162" depart="162.00" from="-129850968#3" to="384593804#1"/>
    <trip id="163" depart="163.00" from="-429413863" to="659182721"/>
    <trip id="164" depart="164.00" from="399342569#1" to="470340002#4"/>
    <trip id="165" depart="165.00" from="399345571#0" to="-398837278#3"/>
    <trip id="166" depart="166.00" from="398431662#2" to="-129932522#2"/>
    <trip id="167" depart="167.00" from="655717669#1" to="442195268#0"/>
    <trip id="168" depart="168.00" from="-366976407#1" to="399756215#1"/>
    <trip id="169" depart="169.00" from="129848460#0" to="-400043757"/>
    <trip id="170" depart="170.00" from="399149599#2" to="-367038272#0"/>
    <trip id="171" depart="171.00" from="-129850948#5" to="-326224835#1"/>
    <trip id="172" depart="172.00" from="-419738514" to="470340003"/>
    <trip id="173" depart="173.00" from="662229310#0" to="-399342579#0"/>
    <trip id="174" depart="174.00" from="129942829#0" to="-661617494"/>
    <trip id="175" depart="175.00" from="662472429#1" to="129929361#2"/>
    <trip id="176" depart="176.00" from="659326896#3" to="-129942510#2"/>
    <trip id="177" depart="177.00" from="662231432" to="-185209867#0"/>
    <trip id="178" depart="178.00" from="661615724#3" to="-398603936#2"/>
    <trip id="179" depart="179.00" from="-129932538" to="129760369#4"/>
    <trip id="180" depart="180.00" from="367011026#2" to="-403551277#1"/>
    <trip id="181" depart="181.00" from="129942647" to="129928482#2"/>
    <trip id="182" depart="182.00" from="-658884190#3" to="129942535#1"/>
    <trip id="183" depart="183.00" from="-386838798#1" to="366976407#0"/>
    <trip id="184" depart="184.00" from="-129753202#3" to="658884192#0"/>
    <trip id="185" depart="185.00" from="129929330" to="367038275"/>
    <trip id="186" depart="186.00" from="384124916#2" to="338160228#2"/>
    <trip id="187" depart="187.00" from="-657664444" to="-129928475#1"/>
    <trip id="188" depart="188.00" from="266438839#1" to="-453087385#0"/>
    <trip id="189" depart="189.00" from="-400351192" to="421562030#2"/>
    <trip id="190" depart="190.00" from="366752612#0" to="-399756224#0"/>
    <trip id="191" depart="191.00" from="-400043760" to="-662398322"/>
    <trip id="192" depart="192.00" from="-660771536" to="-399568779#6"/>
    <trip id="193" depart="193.00" from="-129942592#4" to="-664223041"/>
    <trip id="194" depart="194.00" from="659343073#1" to="338160238#1"/>
    <trip id="195" depart="195.00" from="658014367" to="129942798#1"/>
    <trip id="196" depart="196.00" from="-399756210" to="129932487#0"/>
    <trip id="197" depart="197.00" from="-1197558781#1" to="-399345572#3"/>
    <trip id="198" depart="198.00" from="-662661003#2" to="129942551"/>
    <trip id="199" depart="199.00" from="185209870#1" to="129854951"/>
    <trip id="200" depart="200.00" from="129753202#3" to="-345977851#2"/>
    <trip id="201" depart="201.00" from="129850948#1" to="658021588"/>
    <trip id="202" depart="202.00" from="399342550#0" to="-129942836#1"/>
    <trip id="203" depart="203.00" from="-129929354#2" to="129928508#1"/>
    <trip id="204" depart="204.00" from="129942790#4" to="-656566061#2"/>
    <trip id="205" depart="205.00" from="399568766#1" to="386820246#4"/>
    <trip id="206" depart="206.00" from="266454620#0" to="-366976404"/>
    <trip id="207" depart="207.00" from="-338160231#1" to="-129850948#1"/>
    <trip id="208" depart="208.00" from="-386820242#7" to="129857188#2"/>
    <trip id="209" depart="209.00" from="404166579#2" to="-129928493#1"/>
    <trip id="210" depart="210.00" from="-662229310#1" to="129942844#3"/>
    <trip id="211" depart="211.00" from="-326226302#0" to="365616572"/>
    <trip id="212" depart="212.00" from="129857197#3" to="-386820240#1"/>
    <trip id="213" depart="213.00" from="243601446#1" to="-129760380"/>
    <trip id="214" depart="214.00" from="384449668#1" to="388157388#3"/>
    <trip id="215" depart="215.00" from="-129932533#1" to="-838067683#3"/>
    <trip id="216" depart="216.00" from="-250704317#1" to="660985924"/>
    <trip id="217" depart="217.00" from="129859474#0" to="-129857203#1"/>
    <trip id="218" depart="218.00" from="-386820266#0" to="421562031"/>
    <trip id="219" depart="219.00" from="129847115#0" to="399345572#1"/>
    <trip id="220" depart="220.00" from="266454227" to="664399845#1"/>
    <trip id="221" depart="221.00" from="129942546#3" to="660592916#1"/>
    <trip id="222" depart="222.00" from="657617339#6" to="129942787#3"/>
    <trip id="223" depart="223.00" from="366598816#0" to="129928423#1"/>
    <trip id="224" depart="224.00" from="399756224#3" to="129932487#0"/>
    <trip id="225" depart="225.00" from="657922465#3" to="384927833#0"/>
    <trip id="226" depart="226.00" from="129850948#6" to="-388157398"/>
    <trip id="227" depart="227.00" from="-386820256#0" to="243601446#3"/>
    <trip id="228" depart="228.00" from="386820258" to="129929320#9"/>
    <trip id="229" depart="229.00" from="129942762#2" to="-399342564"/>
    <trip id="230" depart="230.00" from="-129929320#7" to="-399345571#1"/>
    <trip id="231" depart="231.00" from="-399149599#0" to="-410365940#1"/>
    <trip id="232" depart="232.00" from="129929339" to="-129942665#3"/>
    <trip id="233" depart="233.00" from="-384124926" to="364838389#1"/>
    <trip id="234" depart="234.00" from="351033080#7" to="-129859465#3"/>
    <trip id="235" depart="235.00" from="-660984264#4" to="129929369#1"/>
    <trip id="236" depart="236.00" from="-662229311#2" to="-338160236#1"/>
    <trip id="237" depart="237.00" from="-662398324#1" to="658255398"/>
    <trip id="238" depart="238.00" from="129942512#2" to="365438579"/>
    <trip id="239" depart="239.00" from="428121313#2" to="387265396#2"/>
    <trip id="240" depart="240.00" from="-658748211#2" to="-129760419"/>
    <trip id="241" depart="241.00" from="-656783547#1" to="386820261#1"/>
    <trip id="242" depart="242.00" from="421562031" to="660931710#2"/>
    <trip id="243" depart="243.00" from="-662398309#1" to="386307891#2"/>
    <trip id="244" depart="244.00" from="129929354#0" to="129942728#8"/>
    <trip id="245" depart="245.00" from="-366976400" to="-364838387#1"/>
    <trip id="246" depart="246.00" from="-720015823#0" to="-129851257#5"/>
    <trip id="247" depart="247.00" from="-442195266#3" to="338161127"/>
    <trip id="248" depart="248.00" from="-660931710#2" to="-129942799#3"/>
    <trip id="249" depart="249.00" from="129848472#2" to="-129942575"/>
    <trip id="250" depart="250.00" from="129942741#0" to="-129850970#1"/>
    <trip id="251" depart="251.00" from="-659326896#2" to="129942507#0"/>
    <trip id="252" depart="252.00" from="-129851258" to="266437804#0"/>
    <trip id="253" depart="253.00" from="-129942678#1" to="129851257#1"/>
    <trip id="254" depart="254.00" from="-129857203#3" to="-658884198#2"/>
    <trip id="255" depart="255.00" from="-351033079#2" to="-437895857#1"/>
    <trip id="256" depart="256.00" from="386307891#2" to="-658884198#2"/>
    <trip id="257" depart="257.00" from="384593806" to="400523872"/>
    <trip id="258" depart="258.00" from="-386820291" to="-129929337"/>
    <trip id="259" depart="259.00" from="-129849267#1" to="129929368#0"/>
    <trip id="260" depart="260.00" from="997456907" to="-657617335#5"/>
    <trip id="261" depart="261.00" from="129942852" to="398837278#6"/>
    <trip id="262" depart="262.00" from="161636673#3" to="386820262"/>
    <trip id="263" depart="263.00" from="660564765#0" to="-326226302#1"/>
    <trip id="264" depart="264.00" from="-129849269#0" to="-129942744#2"/>
    <trip id="265" depart="265.00" from="-129942592#0" to="338160225#3"/>
    <trip id="266" depart="266.00" from="129932480#1" to="-351033080#5"/>
    <trip id="267" depart="267.00" from="341558626" to="387695784"/>
    <trip id="268" depart="268.00" from="-129942842#5" to="129942748#1"/>
    <trip id="269" depart="269.00" from="384222962#2" to="-129932547#3"/>
    <trip id="270" depart="270.00" from="399568768#0" to="662229177#4"/>
    <trip id="271" depart="271.00" from="-129932534#2" to="-129850948#6"/>
    <trip id="272" depart="272.00" from="-400189663#0" to="338160239#1"/>
    <trip id="273" depart="273.00" from="660931715#1" to="-660984264#0"/>
    <trip id="274" depart="274.00" from="366598786#4" to="-129928513#0"/>
    <trip id="275" depart="275.00" from="338160231#1" to="129942841#1"/>
    <trip id="276" depart="276.00" from="-129932514#0" to="390186896#0"/>
    <trip id="277" depart="277.00" from="410365940#0" to="129942728#14"/>
    <trip id="278" depart="278.00" from="-129942535#8" to="662661001"/>
    <trip id="279" depart="279.00" from="388157388#1" to="-657617322#2"/>
    <trip id="280" depart="280.00" from="-662637045" to="-658748211#1"/>
    <trip id="281" depart="281.00" from="129857816#0" to="-656783547#1"/>
    <trip id="282" depart="282.00" from="404166579#1" to="400043753#1"/>
    <trip id="283" depart="283.00" from="-129932530#1" to="661615726#2"/>
    <trip id="284" depart="284.00" from="129942798#4" to="400189665"/>
    <trip id="285" depart="285.00" from="351034433" to="129760369#7"/>
    <trip id="286" depart="286.00" from="367038272#1" to="662229310#2"/>
    <trip id="287" depart="287.00" from="-398837278#7" to="399568767#0"/>
    <trip id="288" depart="288.00" from="129929329" to="129857199#2"/>
    <trip id="289" depart="289.00" from="-685489239#0" to="384216999"/>
    <trip id="290" depart="290.00" from="-398837278#0" to="428121313#4"/>
    <trip id="291" depart="291.00" from="399756224#3" to="-129929354#0"/>
    <trip id="292" depart="292.00" from="656783550" to="-386820240#0"/>
    <trip id="293" depart="293.00" from="129848470#0" to="129942781#2"/>
    <trip id="294" depart="294.00" from="-658616116#0" to="-129851257#4"/>
    <trip id="295" depart="295.00" from="410365940#2" to="-266437796#0"/>
    <trip id="296" depart="296.00" from="-351033079#4" to="399345563#0"/>
    <trip id="297" depart="297.00" from="-466554479" to="656813920"/>
    <trip id="298" depart="298.00" from="345977851#2" to="-399342569#0"/>
    <trip id="299" depart="299.00" from="-129847115#1" to="660564766#4"/>
    <trip id="300" depart="300.00" from="-129929356#2" to="367038287"/>
    <trip id="301" depart="301.00" from="129857185#1" to="386820294"/>
    <trip id="302" depart="302.00" from="338160231#1" to="266438841"/>
    <trip id="303" depart="303.00" from="129857192#1" to="399342577#1"/>
    <trip id="304" depart="304.00" from="-129929784#0" to="-366976394#1"/>
    <trip id="305" depart="305.00" from="338160233#0" to="-400043765"/>
    <trip id="306" depart="306.00" from="129942508#1" to="129857183#3"/>
    <trip id="307" depart="307.00" from="129928511#1" to="-892236300"/>
    <trip id="308" depart="308.00" from="384124926" to="-470340002#0"/>
    <trip id="309" depart="309.00" from="351033079#1" to="-399342551#0"/>
    <trip id="310" depart="310.00" from="-386820285#2" to="-129942522#2"/>
    <trip id="311" depart="311.00" from="-326225758#1" to="-129942518#3"/>
    <trip id="312" depart="312.00" from="129929320#8" to="386838800"/>
    <trip id="313" depart="313.00" from="-266482084#0" to="-351033080#1"/>
    <trip id="314" depart="314.00" from="129854978" to="384054147"/>
    <trip id="315" depart="315.00" from="662451947#1" to="129929338"/>
    <trip id="316" depart="316.00" from="-399342579#4" to="-129932489#3"/>
    <trip id="317" depart="317.00" from="-326225765" to="-367038272#0"/>
    <trip id="318" depart="318.00" from="-266453301" to="-129848463"/>
    <trip id="319" depart="319.00" from="129929320#0" to="-399342562"/>
    <trip id="320" depart="320.00" from="662398324#0" to="129932508"/>
    <trip id="321" depart="321.00" from="341205700" to="-129942561"/>
    <trip id="322" depart="322.00" from="513164828#0" to="129857206#3"/>
    <trip id="323" depart="323.00" from="656336478#0" to="129942522#1"/>
    <trip id="324" depart="324.00" from="129849267#0" to="129845049#3"/>
    <trip id="325" depart="325.00" from="-266482078#1" to="-129857204#1"/>
    <trip id="326" depart="326.00" from="659343073#3" to="129857194#1"/>
    <trip id="327" depart="327.00" from="399568775#1" to="-662229175#1"/>
    <trip id="328" depart="328.00" from="-129928512#3" to="129942844#1"/>
    <trip id="329" depart="329.00" from="-129857811#0" to="-129942728#7"/>
    <trip id="330" depart="330.00" from="129929793#0" to="-400043754#6"/>
    <trip id="331" depart="331.00" from="720015822" to="-129942513#1"/>
    <trip id="332" depart="332.00" from="386820246#3" to="129942744#2"/>
    <trip id="333" depart="333.00" from="398603936#3" to="-366997317"/>
    <trip id="334" depart="334.00" from="129928464#0" to="129848470#0"/>
    <trip id="335" depart="335.00" from="129753211#1" to="444344574"/>
    <trip id="336" depart="336.00" from="664422878#2" to="-400043757"/>
    <trip id="337" depart="337.00" from="129942728#8" to="129942781#0"/>
    <trip id="338" depart="338.00" from="384054152#0" to="660564766#3"/>
    <trip id="339" depart="339.00" from="-341558625#1" to="-341558625#0"/>
    <trip id="340" depart="340.00" from="266437796#0" to="-129942781#0"/>
    <trip id="341" depart="341.00" from="-185209870#0" to="-129928512#1"/>
    <trip id="342" depart="342.00" from="-129760358#2" to="129848470#0"/>
    <trip id="343" depart="343.00" from="129942535#6" to="-399568766#1"/>
    <trip id="344" depart="344.00" from="-384222960#0" to="366976401#0"/>
    <trip id="345" depart="345.00" from="351033079#1" to="129848473#3"/>
    <trip id="346" depart="346.00" from="338160225#4" to="658884189#9"/>
    <trip id="347" depart="347.00" from="398431662#4" to="129942836#2"/>
    <trip id="348" depart="348.00" from="266437803" to="659326894#0"/>
    <trip id="349" depart="349.00" from="-662451954#2" to="129929784#1"/>
    <trip id="350" depart="350.00" from="129942842#4" to="658555472#2"/>
    <trip id="351" depart="351.00" from="399756212#1" to="-129928482#2"/>
    <trip id="352" depart="352.00" from="-129942838#5" to="-400189662#2"/>
    <trip id="353" depart="353.00" from="384237739#3" to="129942515#0"/>
    <trip id="354" depart="354.00" from="-399345571#2" to="-129942546#0"/>
    <trip id="355" depart="355.00" from="338160228#3" to="366598794#1"/>
    <trip id="356" depart="356.00" from="659361851#4" to="129857829#3"/>
    <trip id="357" depart="357.00" from="129857197#0" to="-129929322"/>
    <trip id="358" depart="358.00" from="-129857194#3" to="129753217#4"/>
    <trip id="359" depart="359.00" from="-404166577#1" to="-386820268#2"/>
    <trip id="360" depart="360.00" from="-129929369#1" to="661618519#1"/>
    <trip id="361" depart="361.00" from="400189661#1" to="129942524"/>
    <trip id="362" depart="362.00" from="660564766#0" to="931890217"/>
    <trip id="363" depart="363.00" from="266454616" to="-399149599#0"/>
    <trip id="364" depart="364.00" from="-129857195#0" to="386820285#0"/>
    <trip id="365" depart="365.00" from="129849268#1" to="266454232#1"/>
    <trip id="366" depart="366.00" from="658586098#2" to="-250704317#0"/>
    <trip id="367" depart="367.00" from="129942513#1" to="185209869#0"/>
    <trip id="368" depart="368.00" from="129857194#2" to="-129929362#0"/>
    <trip id="369" depart="369.00" from="-656566067#2" to="-532063859"/>
    <trip id="370" depart="370.00" from="266454236" to="442195266#1"/>
    <trip id="371" depart="371.00" from="-428098934#1" to="364838389#0"/>
    <trip id="372" depart="372.00" from="-399345571#0" to="660564764#1"/>
    <trip id="373" depart="373.00" from="399345574#3" to="129932489#3"/>
    <trip id="374" depart="374.00" from="129847015" to="-403551280"/>
    <trip id="375" depart="375.00" from="-404166577#4" to="662398302#1"/>
    <trip id="376" depart="376.00" from="-660931710#1" to="129928504#2"/>
    <trip id="377" depart="377.00" from="664029884#0" to="295020804"/>
    <trip id="378" depart="378.00" from="129929348#0" to="-662451954#0"/>
    <trip id="379" depart="379.00" from="-326224795#0" to="-658176889#1"/>
    <trip id="380" depart="380.00" from="384927824#2" to="129942836#3"/>
    <trip id="381" depart="381.00" from="385067076" to="-338160231#0"/>
    <trip id="382" depart="382.00" from="129929357#3" to="658884198#2"/>
    <trip id="383" depart="383.00" from="-892236300" to="366598786#3"/>
    <trip id="384" depart="384.00" from="-129942546#0" to="662398324#2"/>
    <trip id="385" depart="385.00" from="129942665#2" to="-384598849#1"/>
    <trip id="386" depart="386.00" from="-129942799#2" to="129932489#6"/>
    <trip id="387" depart="387.00" from="129929362#0" to="-129929364#1"/>
    <trip id="388" depart="388.00" from="665910564#0" to="658586099"/>
    <trip id="389" depart="389.00" from="129848462" to="-129942512#3"/>
    <trip id="390" depart="390.00" from="400043753#0" to="129857825#5"/>
    <trip id="391" depart="391.00" from="366598794#2" to="129928470#0"/>
    <trip id="392" depart="392.00" from="-399342551#1" to="402904987"/>
    <trip id="393" depart="393.00" from="662451954#4" to="-386820240#0"/>
    <trip id="394" depart="394.00" from="129929360#2" to="-659326894#0"/>
    <trip id="395" depart="395.00" from="658616116#0" to="129928464#1"/>
    <trip id="396" depart="396.00" from="656749816#4" to="470340002#4"/>
    <trip id="397" depart="397.00" from="-399342561#2" to="399342566#2"/>
    <trip id="398" depart="398.00" from="-662229310#3" to="659326894#2"/>
    <trip id="399" depart="399.00" from="129857820#1" to="399801619#1"/>
    <trip id="400" depart="400.00" from="-399342579#3" to="-399756212#0"/>
    <trip id="401" depart="401.00" from="129942517#3" to="931616898#1"/>
    <trip id="402" depart="402.00" from="129857188#2" to="-129942728#5"/>
    <trip id="403" depart="403.00" from="129929332" to="-657070670#1"/>
    <trip id="404" depart="404.00" from="129929361#2" to="129929767#2"/>
    <trip id="405" depart="405.00" from="129847017" to="-421562031"/>
    <trip id="406" depart="406.00" from="-326224982#1" to="366144106"/>