<?xml version="1.0" encoding="UTF-8"?>

<!-- generated on 2023-09-28 13:38:20 by Eclipse SUMO duarouter Version 1.18.0
<configuration xmlns:xsi="http://www.w3.org/2001/XMLSchema-instance" xsi:noNamespaceSchemaLocation="http://sumo.dlr.de/xsd/duarouterConfiguration.xsd">

    <input>
        <net-file value="map3.net.xml"/>
        <route-files value="map3.trips.xml"/>
    </input>

    <output>
        <output-file value="map3.rou.xml"/>
    </output>

    <report>
        <ignore-errors value="true"/>
    </report>

</configuration>
-->

<routes xmlns:xsi="http://www.w3.org/2001/XMLSchema-instance" xsi:noNamespaceSchemaLocation="http://sumo.dlr.de/xsd/routes_file.xsd">
    <vehicle id="0" depart="0.00">
        <route edges="129942812#0 129942812#1 129942812#2 660931710#1 -129942787#1 -129942787#0 -399149593#2 -399149593#1 -399149593#0 -660570746#0 660570745 660985922 -266454614 266437808 658255408 658255397 -266482082 -367038272#0 367038271 658255393 660564763#0 660564763#1 660564763#2 660564763#3 660564763#4 367011039#1 367011026#0 367011026#1 367011026#2 660564762#0 660564762#1 366752616#0 366752616#1 366752616#2 366752616#3 660592916#0 660592916#1 660592916#2 243601446#0 243601446#1 243601446#2 243601446#3 31588342#0 31588342#1 31588342#2 31588342#3 31588342#4 31588342#5 366598801 31588511 -399345571#2 -399345571#1 -399345571#0 -657617322#6 -453087385#1 -129850948#5 -129850948#4"/>
    </vehicle>
    <vehicle id="1" depart="1.00">
        <route edges="-399342558#1 399342558#1 399342558#2 399342558#3 384124925#0 384124925#1 384124918 -658616115#0 384124922 399342550#0 399342550#1 720015822 778945014#0 778945014#1 365616573 658617203 243601446#1 243601446#2 243601446#3 129929349#0 658555481#1 399756219#0 399756219#1 399756219#2 658014350#2 -658555473#1 -658014352#6 -658014352#5 -658014352#4 -658014352#2 -658014352#1 -658014352#0 366598814 399342582 366598813 -366976399"/>
    </vehicle>
    <vehicle id="2" depart="2.00">
        <route edges="367038307 -129932511#2 -433148609#1 -433148609#0 433148611#4 433148611#1 -399756206 -129928467 -367178391 -905747355#1 -905747355#0 1201588311 129942512#1 129942512#2 129942512#3 129942512#4 338160224#0 338160224#1 -129942728#17 -129942728#16 338160237#1 338160237#2"/>
    </vehicle>
    <vehicle id="3" depart="3.00">
        <route edges="657617348 657617354 403925275#1 403925275#2 657626161 129928511#0 129928511#1 386838797 295020804 266485504#0 266485504#1 266485504#2 388157388#0 388157388#1 388157388#3 366598786#1 366598786#2 366598786#3 129929329 386100106#0 -129929356#2 129929354#1 -129929354#1"/>
    </vehicle>
    <vehicle id="4" depart="4.00">
        <route edges="-662451943#2 662451943#2 458598430 399756215#1 399756215#2 399756215#3 384248227 660592916#2 243601446#0 243601446#1 243601446#2 243601446#3 243601447#0 243601447#1 658586101#2 -399342550#1 -399342550#0 -384124922 384124917 -129928480 658014370 658014367 400523870#1 658014371#1 658014371#2 658014372 398589529#0 398589529#1 658029060#0 402267082 658021589 658021587 398837278#0 -341558627#3 -341558627#2 129857816#0 398431662#4 656566067#1 -129854943#1"/>
    </vehicle>
    <vehicle id="5" depart="5.00">
        <route edges="-366976394#1 -366976397#1 -366598816#0 366598813 662637047#0 658014352#0 658014352#1 658014352#2 658014352#4 658014352#5 658014352#6 658555473#1 658555472#0 658555472#1 366598795#1 366598795#2 364828767#0 266485504#1 -129929350#0 129928440"/>
    </vehicle>
    <vehicle id="6" depart="6.00">
        <route edges="-129851257#4 -129851257#3 -386820285#2 -326225765"/>
    </vehicle>
    <vehicle id="7" depart="7.00">
        <route edges="129942850#3 384222960#0 384222960#1 661618520 129753211#0 129753211#1 129753211#2 129753211#3 129753211#4 129753211#5 399756215#0 399756215#1 399756215#2 399756215#3 399756215#4 -364838387#1 129929792 129929784#1 129929784#3"/>
    </vehicle>
    <vehicle id="8" depart="8.00">
        <route edges="-366976400 366976399 662637047#0 658014352#0 658014352#1 658014352#2 129753202#0 129753202#1 129753202#2 129753202#3 482087269 436880744 662472444 662472443 436880743 351033079#0 129942694#0 129942655#0"/>
    </vehicle>
    <vehicle id="9" depart="9.00">
        <route edges="399345570#0 -129760434#1"/>
    </vehicle>
    <vehicle id="10" depart="10.00">
        <route edges="399342580#2 -399342580#2 -399342580#1 -399342579#4 -399342579#3 -399342579#2 -399342579#1 -399342579#0 -399342581 -351033079#4 -351033079#3 -351033079#2 -351033079#1 -351033079#0 364832103 662472445#1 662472446 662472440 351033828 662472447 662472442#0 436880746 662472441 -482087269 -129753202#3 -129753202#2 -129753202#1 -129753202#0 658014352#4 366598794#0 366598794#1 366598794#2 129929365 386100106#2 -658586114 366598786#1 366598786#2 366598786#3"/>
    </vehicle>
    <vehicle id="11" depart="11.00">
        <route edges="-466554479 437895857#2 129932511#0 -433148609#1 -433148609#0 433148611#4 433148611#1 -399756206 -129928467 -367178391 -905747355#1 -905747355#0 -351033080#11 -351033080#10 -351033080#9 -351033080#8 -351033080#7 -351033080#6 -351033080#5 -351033080#4 -351033080#3 -419590973 -129942783#1 -664223041 -129942790#4 -129942756#1 129942712#1 -129942766#0"/>
    </vehicle>
    <vehicle id="12" depart="12.00">
        <route edges="660931710#2 -660931710#2 -129942787#1 -129942787#0 -399149593#2 -399149593#1 -399149593#0 -660570746#0 660570745 660985922 -266454614 266437808 658255408 658255395 658255405 658255401 -386820242#7 -386820242#5 -386820242#2 -386820242#1 -367038261 -129760369#7 -129760369#6 -129760369#5 -129760369#4 -129760369#3 -129760369#2 -129760369#1 -129760369#0 -386820246#4 -386820246#3 -386820246#2 -386820246#1 129760429 384927829 402267082 658021589 658021587 398837278#0 -341558627#3 -341558627#2 129857816#0 398431662#4 656566067#1 656566067#2 656566063#6 -656566063#6"/>
    </vehicle>
    <vehicle id="13" depart="13.00">
        <route edges="-129929783#1 -400043753#0 -364838389#2 -364838389#1 -364838389#0 -129929784#0"/>
    </vehicle>
    <vehicle id="14" depart="14.00">
        <route edges="404166558 -129854963#2 -129854963#1 -129854963#0 398837278#5 398837278#6 398837278#7 398837278#8 428121313#1 428121313#2 428121313#3 428121313#4 428121313#5 428121313#6 659361858#0 659361858#1 659361858#2 659361858#3 931868497 386820242#1 386820242#2 386820242#5 386820242#7 658255398 266437812 266454615 266454619 658255406 658255408 658255397 -266482082 -367038272#0 367038271 384222959 -399342568#3 -129942730#2 -129942730#1 129942730#1"/>
    </vehicle>
    <vehicle id="15" depart="15.00">
        <route edges="399342580#6 -660984264#4 -660984264#3 -660984264#2 -660984264#1 -660984264#0 384222962#0 384222962#1 384222962#2 658255393 660564763#0 660564763#1 660564763#2 660564763#3 660564763#4 367011039#1 367011026#0 367011026#1 367011026#2 660564762#0 660564762#1 366752616#0 366752616#1 366752616#2 366752614 366752612#1 365616571 778945014#6 -384593804#1 -384593804#0 -129929343#0 399342554 384124923#0"/>
    </vehicle>
    <vehicle id="16" depart="16.00">
        <route edges="129929320#9 -129929320#9 -129929327 129929368#7 129929368#8 243602329 660564763#4 367011039#1 367011026#0 367011026#1 367011026#2 660564762#0 129929359#0 129929359#1 129929359#2 -662451954#5 -662451954#4 -662451954#3 -662451954#2 -662451954#1 -662451954#0 -662229311#2 -662229311#1 662451948#0 662451948#1 662398324#2"/>
    </vehicle>
    <vehicle id="17" depart="17.00">
        <route edges="-658616115#0 384124922 658616116#0 658616116#1 658616116#2 -129848467 778945014#4 778945014#5 778945014#6 778945014#7 129929368#0 129929357#0 129929357#1 129929357#2 129929357#3 266482076#1 659288429 -129932530#3 -129932530#2 -129932530#1 129932501#1"/>
    </vehicle>
    <vehicle id="18" depart="18.00">
        <route edges="399756222#1 129849269#0 129849269#2 399756224#2 399756224#3 -129848462 -398589528#2 -398589528#0 400523872 439719758#0 400523890 -513164827 -384124926 -384124920 -399342554 -129848467 778945014#4 778945014#5 778945014#6 778945014#7 -659182735 659182736 243601589 366144106 129929359#1 129929359#2 -662451954#5 -662451954#4 -662451954#3 -662451954#2 -662451954#1 -662451954#0 -662229311#2 -129942844#3 -129942799#3 -129942799#2 -129942798#2 129942801#2"/>
    </vehicle>
    <vehicle id="19" depart="19.00">
        <route edges="437895857#2 129932511#0 -433148609#1 -433148609#0 433148611#4 433148611#1 433148611#2 433148610 660984264#0 660984264#1 129942535#0 129942535#1 129942535#3 129942535#4 129942535#5"/>
    </vehicle>
    <vehicle id="20" depart="20.00">
        <route edges="351033080#10 351033080#11 905747355#0 905747355#1 367178391 129928467 399756206 433148611#2 433148610 384222962#0 384222962#1 384222962#2 658255393 660564763#0 660564763#1 367038275 367038273#0 393873907 129942569#1 129942569#2 -266482078#1 -266482078#0 -129932514#0 -386820242#1 -367038261 367038265#0 367038265#1 367038265#2 367038265#3 367038265#4 659361851#1 659326894#0 -129857199#2"/>
    </vehicle>
    <vehicle id="21" depart="21.00">
        <route edges="-384054152#2 -384054152#1 -399345570#3 -399345570#2 -399345570#0 -129851258 399345562 399568761 -399568761"/>
    </vehicle>
    <vehicle id="22" depart="22.00">
        <route edges="-129929334 -657922466 -386838798#1 -386838798#0 660564765#3 129928493#0 658014360#0 658014360#1 658014360#2 -658586098#1 129760395 445535093 402904988 402904987 658014363#0 658014363#1 658014363#2 658014363#3 658014370 387695784 129859464#1 -384124926 -384124920"/>
    </vehicle>
    <vehicle id="23" depart="23.00">
        <route edges="-129932511#2 -433148609#1 -433148609#0 433148611#4 433148611#1 433148611#2 433148610 384222962#0 384222962#1 384222962#2 658255393 660564763#0 660564763#1 660564763#2 367152650 129753211#0 129753211#1 129753211#2 129753211#3 129753211#4 367011029#0 367011029#2 367011029#3 367011029#4 -399342577#0"/>
    </vehicle>
    <vehicle id="24" depart="24.00">
        <route edges="129942798#4 662229311#0 662229311#1 662229311#2 662451954#0 129929767#0 129929767#1 129929767#2 -364838389#2 -658555474#4"/>
    </vehicle>
    <vehicle id="25" depart="25.00">
        <route edges="-658014363#2 658014363#2 658014363#3 129928480 384124918 658616115#1 384598847 658616116#1 658616116#2 -129848467 778945014#4 778945014#5 778945014#6 778945014#7 129929368#0 129929368#1 129929368#2 129929368#3 129929368#4 129929368#5 129929368#6 129929368#7 129929368#8 129929368#9 129929368#10 367038273#0 367038273#1 658255392 -658255393 -384222962#2 -384222962#1 -384222962#0 -433148610 433148611#3 433148611#4 433148611#1 -399756206 -129928467 -367178391 -905747355#1 -905747355#0 1201588311 129942512#1 338160225#1 338160225#2 338160225#3 338160225#4 338160225#5 -338160239#4"/>
    </vehicle>
    <vehicle id="26" depart="26.00">
        <route edges="-398589529#1 -398589529#0 400523872 439719758#0 439719758#1 439719758#2 658014371#0 658014371#1 658014371#2 658014372 398589529#0 398589529#1 658029060#0 402267082 658021589 658021587 398837278#0 398837278#1 398837278#2 398837278#3 398837278#4 398837278#5 398837278#6 398837278#7 398837278#8 428121313#1 129857203#0 129857203#1 129857200#1 659343073#2"/>
    </vehicle>
    <vehicle id="27" depart="27.00">
        <route edges="129942844#0 129942844#1 129942844#2 129942844#3 -662229311#1 -662229311#0 -662229312 -129929793#2 129929793#2 129942775"/>
    </vehicle>
    <vehicle id="28" depart="28.00">
        <route edges="-161636673#1 161636673#1 161636673#3 161636673#4 341558627#0 341558627#2 341558627#3 -398837278#0 658021585 658021590 658021588 -129760429 -386820246#0 -398589529#1 -398589529#0 400523872 439719758#0 400523890 -513164827 -384124926 -384124920 384124920"/>
    </vehicle>
    <vehicle id="29" depart="29.00">
        <route edges="-129942836#0 129942836#0 129942836#1 129942836#2 129942836#3 399342568#0 399342568#2 399342568#3 384222960#0 129942720#2 660564763#1 367038275 367038273#0 393873907 129942569#1 129942569#2 -266482078#1 -266482078#0 -129932514#0 -386820242#1 -367038261 367038265#0 367038265#1 367038265#2 367038265#3 367038265#4 659361851#1 659361851#2 659361851#3 659361851#4 -658884193#5 -402534194#0 404166579#1 404166579#2 404166579#3 -658884198#4"/>
    </vehicle>
    <vehicle id="30" depart="30.00">
        <route edges="664422878#1 664422879#3 -442195269 -129942728#6 -129942728#5 -129942728#4 -129942728#3 -129942728#2 129942822#0 129942822#1 399756200#0 -351033080#4 -351033080#3 -351033080#2 -351033080#1 -351033080#0 436880745 662472440 351033828 662472447 662472442#0 436880746 662472441 -482087269 -129753202#3 -129753202#2 -129753202#1 -129753202#0 658014352#4 366598794#0 366598794#1 366598794#2 129929365 386100106#2 -658586114 366598786#1 366598786#2 366598786#3 366598786#4 366598788 658616114#0 384216999 658586104#0 250704314"/>
    </vehicle>
    <vehicle id="31" depart="31.00">
        <route edges="129929368#3 659326893 660587336 660587337#0 660587337#2 129760369#7 367038265#0 367038265#1 367038265#2 367038265#3 367038265#4 428121313#6 -399342572 -129857826#3 129857823#0 129857199#4 129857199#5 659552957#2 129857200#7 345977851#3"/>
    </vehicle>
    <vehicle id="32" depart="32.00">
        <route edges="402267082 658021589 658021587 398837278#0 -341558627#3 -341558627#2 -341558627#0 -161636673#4 129857822#3 398431662#1"/>
    </vehicle>
    <vehicle id="33" depart="33.00">
        <route edges="-384124916#2 -384124916#1 -384124916#0 -129942524 384216999 658586104#0 658586104#1 386834508 658586108 364828765#0 386100106#0 386100106#1 386100106#2 364828766#0 364828766#1 364828766#2 364828766#3 388157386#0 388157386#1 250704312 129929333 129760409#4 129760409#5 399345574#0 399345574#1 399345574#2 399345574#3 778945014#0 778945014#1 778945014#2 778945014#3 129848467 399342554 384124920 -399342558#3 -399342558#2 -399342558#1 -399342558#0 -658884188#1 -658884188#0 398837278#4 129854963#0 129854963#1 129854963#2 -129854963#2"/>
    </vehicle>
    <vehicle id="34" depart="34.00">
        <route edges="-400523895#1 384927826#0 384927827 -384927824#0 658029060#0 402267082 658021589 658021587 398837278#0 398837278#1 398837278#2 398837278#3 398837278#4 398837278#5 398837278#6 -398837278#6"/>
    </vehicle>
    <vehicle id="35" depart="35.00">
        <route edges="-351033079#0 364832103 662472445#1 662472446 662472440 351033828 662472447 662472442#0 662472442#1 662472443 436880743 351033079#0 351033079#1 351033079#2 129929793#0 129929793#2 662229312 662229311#0 662229311#1 662229311#2 662451954#0 662451954#1 129929794 -367011029#0 367011027 367011026#2 129857192#0 129857192#1 129857192#2 659326893 660587336 660587337#0 660587337#2 659568995#0 659568995#1 659568995#2 659568995#3"/>
    </vehicle>
    <vehicle id="36" depart="36.00">
        <route edges="656566067#2 -656566067#2 -656566067#1 -656566067#0 -129857816#0 341558627#2 341558627#3 -398837278#0 658021585 658021590 658021588 -129760429 -386820246#0 -398589529#1 -398589529#0 400523872 439719758#0 400523890 -513164827 -384124926 -384124920 -399342554 -129848467 365616572 838067684 366752612#0 366752612#1 366752612#2 366752612#3 365616565 366752616#1 366752616#2 366752616#3 662398319#0 399756215#2 399756215#3 -403551281"/>
    </vehicle>
    <vehicle id="37" depart="37.00">
        <route edges="185209870#3 -185209870#3 -185209870#2 -185209870#1 -185209870#0 390186895 404166558 -129854963#2 -129854963#1 -129854963#0 398837278#5 398837278#6 398837278#7 398837278#8 428121313#1 428121313#2 428121313#3 428121313#4 428121313#5 428121313#6 659361858#0 659361858#1 659361858#2 659361858#3 931868497 386820242#1 386820242#2 386820242#5 386820242#7 658255398 266437812 266454615 266454619 658255407 266454614 437895859 437895858 660570746#1 399149595 399149595-AddedOffRampEdge 658259083 658259085#0 660771532#0 -660931713#1 -660931713#0"/>
    </vehicle>
    <vehicle id="38" depart="38.00">
        <route edges="658586095 -398603936#3 -398603936#2 129928482#4 838067683#1 838067683#2 838067683#3 658586098#0 658586098#1 658586098#2 658586098#3 383661581 -386820256#1 -386820256#0 -399345572#3 -399345572#2 -399345572#1 -129850948#6 -129850948#5 -129850948#4 -129850948#3 -129850948#2 129850948#2"/>
    </vehicle>
    <vehicle id="39" depart="39.00">
        <route edges="-398431662#2 -398431662#1 -129857822#3 161636673#4 341558627#0 341558627#2 341558627#3 -398837278#0 658021585 658021590 658021588 -129760429 386820246#1 386820246#2 386820246#3 -386820246#3"/>
    </vehicle>
    <vehicle id="40" depart="40.00">
        <route edges="129929785 400351192 662231429 662472429#0 662472429#1 662472429#2 662472430#0 662472430#1 -658555474#1 366056443 399346094 129929325#0 129929325#1 658586103#0 658586103#1 399345574#1 399345574#2 243601447#1 658586101#2 -399342550#1 -399342550#0 -384124922 384124917 -129928480 658014370 658014367 400523870#1 658014371#1 658014371#2 658014372 398589529#0 398589529#1 658029060#0 402267082 658021589 658021587 398837278#0 -341558627#3 -341558627#2 129857816#0 -398431662#3"/>
    </vehicle>
    <vehicle id="41" depart="41.00">
        <route edges="129942512#4 -129942512#4 -129942512#3 -129942512#2 -129942512#1 -129942512#0 -351033080#11 -351033080#10 -351033080#9 -351033080#8 -351033080#7 -351033080#6 -351033080#5 -351033080#4 -351033080#3 -351033080#2 -351033080#1 -351033080#0 436880745 662472440 351033828 662472447 662472442#0 436880746 662472441 -482087269 -129753202#3 -129753202#2 -129753202#1 -129753202#0 658014352#4 658014352#5 658014352#6 658555473#1 658555472#0 658555472#1 658555472#2 658586093 129760380 399346102#0 399346102#1 399346102#2 658014360#1"/>
    </vehicle>
    <vehicle id="42" depart="42.00">
        <route edges="-659568996#1 384449667#1 129932514#1 266482078#1 266482078#2 129929368#10 -367038275 660564763#2 367152650 129753211#0 129753211#1 129753211#2 129753211#3 129753211#4 129753211#5 399756215#0 399756215#1 399756215#2 399756215#3 399756215#4 -364838387#1 -364838387#0"/>
    </vehicle>
    <vehicle id="43" depart="43.00">
        <route edges="838067683#3 -838067683#3 -838067683#2 -838067683#1 -838067683#0 -658586096 -658586100 -657922464#1 658586102 399345574#2 399345574#3 778945014#0 778945014#1 778945014#2 778945014#3 778945014#4 778945014#5 778945014#6 778945014#7 129929368#0 129929368#1 129929368#2 129929368#3 129929368#4 129929368#5 129929368#6 129929368#7 129929368#8 129929368#9 129929368#10 367038273#0 367038273#1 658255392 -658255393 -384222962#2 -384222962#1 -384222962#0 -433148610 433148611#3 433148611#4 433148611#1 433148611#2 433148610 660984264#0 660984264#1 660984264#2 660984264#3 129928474"/>
    </vehicle>
    <vehicle id="44" depart="44.00">
        <route edges="-129929369#0 -129760369#4 659288429 -129932530#3 -129932530#2 -129932530#1 -129932530#0 398837278#8 428121313#1 129857203#0 129857203#1 -129857200#0"/>
    </vehicle>
    <vehicle id="45" depart="45.00">
        <route edges="-129932542#2 129932542#2 -399342580#3 -399342580#2 -399342580#1 -399342579#4 -399342579#3 -399342579#2 -399342579#1 -399342579#0 -399342581 -351033079#4 129942842#0"/>
    </vehicle>
    <vehicle id="46" depart="46.00">
        <route edges="398837278#4 398837278#5 398837278#6 398837278#7 398837278#8 428121313#1 428121313#2 428121313#3 428121313#4 428121313#5 428121313#6 659361858#0 659361858#1 659361858#2 659361858#3 931868497 386820242#1 386820242#2 386820242#5 386820242#7 658255398 266437812 266454615 266454619 658255406 658255408 658255397 -266482082 -367038272#0 367038271 384222959 -399342568#3 -399342568#2 -399342568#0 -129942836#3 -129942836#2 -129942836#1 -129942836#0 -399342580#1 -399342579#4 -399342579#3 -399342579#2 -399342579#1 -399756198 -399756200#3 -399756200#2 -399756200#1 -399756200#0 -129942822#1 -665910563#0"/>
    </vehicle>
    <vehicle id="47" depart="47.00">
        <route edges="-129859474#0 129859474#0 659182717#6 -659182717#6"/>
    </vehicle>
    <vehicle id="48" depart="48.00">
        <route edges="778945014#6 778945014#7 -659182735 659182736 243601589 366752616#0 366752616#1 366752616#2 366752616#3 660592916#0 660592916#1 660592916#2 243601446#0 243601446#1 243601446#2 243601446#3 31588342#0 31588342#1 31588342#2 31588342#3 31588342#4 31588342#5 366598799 266485504#0 266485504#1 -129929350#0 129929350#0"/>
    </vehicle>
    <vehicle id="49" depart="49.00">
        <route edges="662231439#0 662231439#1 662451954#0 662451954#1 129929794 -367011029#0 367011027 367011026#2 129857192#0 129928460#1 367011023#0 367011023#1 367011025#0 367011041 129929368#7 129929368#8 243602329 129942688 129753211#2 -129942594 449252057"/>
    </vehicle>
    <vehicle id="50" depart="50.00">
        <route edges="-129848460#0 -892236300 -658586098#3 -658586098#2 -658586098#1 -658586098#0 -838067683#3 -838067683#2 -838067683#1 -838067683#0 -658586096 -658586100 -657922464#1 658586102 399345574#2 399345574#3 778945014#0 778945014#1 778945014#2 778945014#3 778945014#4 778945014#5 778945014#6 778945014#7 129929368#0 129929368#1 129929368#2 129929368#3 129929368#4 129929368#5 129929368#6 129929368#7 129929368#8 129929368#9 129929368#10 367038273#0 367038273#1 367038273#2 367038272#0 367038272#1 658255396 658255405 658255404 266437812 266437804#0 266437804#1 266437804#2 367038297#2 367038297#3 266454241 266437815#1 367038298"/>
    </vehicle>
    <vehicle id="51" depart="51.00">
        <route edges="326225120#1 -657666681 129753217#2 129753217#3 129753217#4 403925274 657617354 403925275#1 403925275#2 657626161 129928511#0 129928511#1 386838797 295020804 366598802 400189659 129760409#2 129760409#3 129760409#4 129760409#5 399345574#0 399345574#1 399345574#2 399345574#3 778945014#0 778945014#1 778945014#2 778945014#3 778945014#4 778945014#5 778945014#6 778945014#7 129929368#0 129929368#1 129929368#2 -129929362#2 -129929362#1 129929362#1"/>
    </vehicle>
    <vehicle id="52" depart="52.00">
        <route edges="-398589529#1 -398589529#0 400523872 439719758#0 439719758#1 439719758#2 400523888#0 -658014367 -658014370 129928480 384124918 -658616115#0 384124922 399342550#0 399342550#1 720015822 778945014#0 778945014#1 365616573 658617203 243601446#1 243601446#2 243601446#3 129929349#0 129929349#1 -364838387#0 250704317#0"/>
    </vehicle>
    <vehicle id="53" depart="53.00">
        <route edges="-129942510#1 662398309#0 662398309#1 129942836#1 129942836#2 129942836#3 399342568#0 399342568#2 399342568#3 384222960#0 129942720#2 660564763#1 367038275 367038273#0 393873907 129942569#1 129942569#2 -266482078#1 -266482078#0 -129932514#0 -386820242#1 -367038261 -129760369#7 -129760369#6 -129760369#5 -129760369#4 129760369#4"/>
    </vehicle>
    <vehicle id="54" depart="54.00">
        <route edges="129845049#3 -129845049#3 -129845049#2 -129845049#1 -129845049#0 161636673#1 161636673#3 161636673#4 341558627#0 341558627#2 341558627#3 -398837278#0 658021585 658021590 658021588 -129760429 386820246#1 386820246#2 386820246#3 386820246#4 129760369#0 129760369#1 129760369#2 129760369#3 129760369#4 129760369#5 129760369#6 129760369#7 367038261 386820242#1 386820242#2 386820242#5 386820242#7 658255398 266437812 266454615 266454619 658255407 266454614 437895859 437895858 660570746#1 399149595 399149595-AddedOffRampEdge 658259083 658259085#0 660771532#0 660931713#2"/>
    </vehicle>
    <vehicle id="55" depart="55.00">
        <route edges="656566063#7 -656566063#7 -656566063#6 -656566063#4 -656566063#3 -656566063#1 -656566063#0 656566061#1 656566061#2 -129857811#0 -129845049#0 -161636673#0 -129848472#1 -129848472#0 129942817 -398431663#2 -398431663#1"/>
    </vehicle>
    <vehicle id="56" depart="56.00">
        <route edges="129857202#1 659361851#3 659361851#4 -398837278#8 -398837278#7 -398837278#6 -398837278#5 129854963#0 129854963#1 -185209867#0"/>
    </vehicle>
    <vehicle id="57" depart="57.00">
        <route edges="658555474#2 658555474#3 129929789#0 129929789#1 250704317#0 250704317#1 129929325#0 129929325#1 658586103#0 658586103#1 399345574#1 399345574#2 243601447#1 658586101#2 -399342550#1 -399342550#0 -384124922 384124917 -129928480 658014370 658014367 400523870#1 658014371#1 658014371#2 658014372 398589529#0 398589529#1 658029060#0 402267082 658021589 658021587 398837278#0 -341558627#3 -341558627#2 -341558627#0 -161636673#4 -161636673#3 -161636673#1 129845049#0 129845049#1 129847023 656566059"/>
    </vehicle>
    <vehicle id="58" depart="58.00">
        <route edges="-399756192#0 659182726#1 399342558#3 -384124920 -399342554 -129848467 778945014#4 778945014#5 778945014#6 778945014#7 129929368#0 129929368#1 129929368#2 129929368#3 129929368#4 129929368#5 129929368#6 129929368#7 129929368#8 243602329"/>
    </vehicle>
    <vehicle id="59" depart="59.00">
        <route edges="129942665#3 -129942665#3 -129942665#2 -129942524 384216999 658586104#0 658586104#1 386834508 658586108 364828765#0 386100106#0 386100106#1 386100106#2 364828766#0 364828766#1 364828766#2 364828766#3 388157386#0 388157386#1 250704312 129929333 129760409#4 129760409#5 399345574#0 399345574#1 399345574#2 399345574#3 778945014#0 778945014#1 778945014#2 778945014#3 778945014#4 778945014#5 778945014#6 778945014#7 129929368#0 129929368#1 129929368#2 129929368#3 129929368#4 129929368#5 129929368#6 129929368#7 129929368#8 129929368#9 129929368#10 367038273#0 367038273#1 658255392 -658255393 -384222962#2 -129942746#1"/>
    </vehicle>
    <vehicle id="60" depart="60.00">
        <route edges="386820242#2 -386820242#2 129932514#0 129932514#1 266482078#1 266482078#2 129929368#10 -367038275 660564763#2 367152650 129753211#0 129753211#1 129753211#2 129753211#3 129753211#4 129753211#5 399756215#0 399756215#1 399756215#2 399756215#3 399756215#4 658555481#0 658555481#1 399756219#0 399756219#1 399756219#2 366598795#0 366598795#1 366598795#2 364828767#0 266485504#1 266485504#2 388157388#0 388157388#1 -129929363#2 -129929363#1 -129929345#1 129929367#1"/>
    </vehicle>
    <vehicle id="61" depart="61.00">
        <route edges="387265396#2 388157389 388157386#0 388157386#1 250704312 31588342#4 31588342#5 366598801 366598802 129929322 129929352#1"/>
    </vehicle>
    <vehicle id="62" depart="62.00">
        <route edges="-1201588312 -685489239#0 -129942512#3 -129942512#2 -129942512#1 -129942512#0 -351033080#11 -351033080#10 -351033080#9 -351033080#8 -351033080#7 -351033080#6 -351033080#5 -351033080#4 -351033080#3 -351033080#2 -351033080#1 -351033080#0 436880745 662472440 351033828 662472447 662472442#0 436880746 662472441 -482087269 -129753202#3 -129753202#2 -129753202#1 -129753202#0 658014352#4 658014352#5 658014352#6 658555473#1 658555472#0 658555472#1 658555472#2 31588342#3 31588342#4 31588342#5 366598801 31588511 -399345571#2 -399345571#1 129760419 -428098935#2"/>
    </vehicle>
    <vehicle id="63" depart="63.00">
        <route edges="-129849267#1 129849267#1 -656749815#2 -129848462 -398589528#2 -398589528#0 400523872 439719758#0 439719758#1 439719758#2 658014371#0 658014371#1 658014371#2 658014372 398589529#0 398589529#1 386820246#0 386820246#1 -400263624 659182717#2"/>
    </vehicle>
    <vehicle id="64" depart="64.00">
        <route edges="656749816#2 -656749816#2 -656749815#4 -656749815#3 -656749815#2 -129848462 -398589528#2 -398589528#0 400523872 439719758#0 439719758#1 439719758#2 400523888#0 400523870#1"/>
    </vehicle>
    <vehicle id="65" depart="65.00">
        <route edges="-400043754#7 662231431#1 662231439#0 662231439#1 662451954#0 662451954#1 662451954#2 662451954#3 662451954#4 662451954#5 399756215#0 399756215#1 399756215#2 399756215#3 384248227 660592916#2 243601446#0 243601446#1 243601446#2 243601446#3 243601447#0 243601447#1 658586101#2 -399342550#1 -399342550#0 -384124922 384124917 -129928480 658014370 658014367 400523870#1 658014371#1 658014371#2 658014372 398589529#0 398589529#1 658029060#0 402267082 658021589 -341558625#2 -341558625#1 -341558625#0 129857822#1 -129857822#1"/>
    </vehicle>
    <vehicle id="66" depart="66.00">
        <route edges="656749815#6 384054147 387265375#3 660564766#0"/>
    </vehicle>
    <vehicle id="67" depart="67.00">
        <route edges="-129929356#2 129929354#1 129929354#2 129929365 386100106#2 364828766#0 364828766#1 364828766#2 364828766#3 388157386#0 388157386#1 250704312 129929333 129760409#4 129760409#5 399345574#0 399345574#1 399345574#2 399345574#3 778945014#0 778945014#1 778945014#2 778945014#3 778945014#4 778945014#5 778945014#6 778945014#7 129929368#0 129929368#1 129929368#2 129929368#3 659326893 660587336 660587337#0 660587337#2 659568995#0 659568995#1 659568995#2 659568995#3 659326894#0 659326894#1 129857200#4"/>
    </vehicle>
    <vehicle id="68" depart="68.00">
        <route edges="-129928480 -658014363#3 -658014363#2 -658014363#1 -658014363#0 -402904987 129929339 -658255390 658586098#0 658586098#1 -658014360#2 -658014360#1 -658014360#0 -129928493#0 -660564765#3 386838798#0 657922465#0 657922465#1 657922465#2 657922465#3 -386820250 -386838796#3 -386838796#1 386838796#1"/>
    </vehicle>
    <vehicle id="69" depart="69.00">
        <route edges="386820258 -386820258 129848053#3 129848053#4 129848053#5 129848053#7 387265375#1 387265374 -129942583#2 -129942583#1 -129942583#0"/>
    </vehicle>
    <vehicle id="70" depart="70.00">
        <route edges="129850968#1 -129850968#1 657617322#1 657617322#2 657617322#3 657617322#4 657617322#5 657617322#6 399345571#0 399345571#1 399345571#2 660564764#1 129760409#0 129760409#1 129760409#2 129760409#3 129760409#4 129760409#5 658014350#0 658014350#1 658014350#2 -658555473#1 -658014352#6 -658014352#5 -658014352#4 129753202#0 129753202#1 129753202#2 129753202#3 482087269 436880744 662472444 662472443 436880743 351033079#0 351033079#1 351033079#2 351033079#3 351033079#4 399342581 399342579#0 399342579#1 399342579#2 399342579#3 399342579#4 399342580#1 399342580#2 399342580#3 -129932542#2 129932489#0 129932489#1 129932489#2"/>
    </vehicle>
    <vehicle id="71" depart="71.00">
        <route edges="-398431662#3 -398431662#2 129857820#0 129857820#1 129857820#2 656566063#3 656566063#4"/>
    </vehicle>
    <vehicle id="72" depart="72.00">